data/sourcebus_11000.trafo_75585177_75585177/Lines.dss
New Line.line_75582142_3093585_3093045 Units=km Length=0.004900000095367432 bus1=3093045.1.2.3 bus2=3093585.1.2.3 switch=n enabled=y phases=3 Linecode=3P_Code5
New Line.line_75582143_3093586_3093046 Units=km Length=0.032700000762939455 bus1=3093046.1.2 bus2=3093586.1.2 switch=n enabled=y phases=2 Linecode=2P_Code1
New Line.line_75582144_3093392_3093047 Units=km Length=0.024899999618530275 bus1=3093047.1.2.3 bus2=3093392.1.2.3 switch=n enabled=y phases=3 Linecode=3P_Code0
New Line.line_75582145_3093253_3093048 Units=km Length=0.003200000047683716 bus1=3093048.1.2.3 bus2=3093253.1.2.3 switch=n enabled=y phases=3 Linecode=3P_Code3
New Line.line_75582146_3093156_3093049 Units=km Length=0.0335 bus1=3093049.1.2.3 bus2=3093156.1.2.3 switch=n enabled=y phases=3 Linecode=3P_Code5
New Line.line_75582147_3093587_3093050 Units=km Length=0.019899999618530274 bus1=3093050.2 bus2=3093587.2 switch=n enabled=y phases=1 Linecode=1P_Code8
New Line.line_75582148_3093476_3093051 Units=km Length=0.040700000762939455 bus1=3093051.1.2.3 bus2=3093476.1.2.3 switch=n enabled=y phases=3 Linecode=3P_Code0
New Line.line_75582201_3093608_3093101 Units=km Length=0.007400000095367432 bus1=3093101.2.3 bus2=3093608.2.3 switch=n enabled=y phases=2 Linecode=2P_Code1
New Line.line_75582207_3091345_3093106 Units=km Length=0.006400000095367432 bus1=3093106.1.2.3 bus2=3091345.1.2.3 switch=n enabled=y phases=3 Linecode=3P_Code0
New Line.line_75582208_3093300_3091074 Units=km Length=0.012300000190734864 bus1=3091074.2.3 bus2=3093300.2.3 switch=n enabled=y phases=2 Linecode=2P_Code12
New Line.line_75582224_3093330_3093123 Units=km Length=0.004900000095367432 bus1=3093123.1.2.3 bus2=3093330.1.2.3 switch=n enabled=y phases=3 Linecode=3P_Code3
New Line.line_75582248_3093145_3093144 Units=km Length=0.056200000762939455 bus1=3093144.1.2 bus2=3093145.1.2 switch=n enabled=y phases=2 Linecode=2P_Code1
New Line.line_75582249_3093623_3093145 Units=km Length=0.0520999984741211 bus1=3093145.1.2 bus2=3093623.1.2 switch=n enabled=y phases=2 Linecode=2P_Code1
New Line.line_75582262_3093628_3093156 Units=km Length=0.015300000190734863 bus1=3093156.1.2.3 bus2=3093628.1.2.3 switch=n enabled=y phases=3 Linecode=3P_Code4
New Line.line_75582263_3093051_3093157 Units=km Length=0.024200000762939454 bus1=3093157.1.2.3 bus2=3093051.1.2.3 switch=n enabled=y phases=3 Linecode=3P_Code0
New Line.line_75582282_3093101_3091113 Units=km Length=0.0785999984741211 bus1=3091113.2.3 bus2=3093101.2.3 switch=n enabled=y phases=2 Linecode=2P_Code1
New Line.line_75582297_3093640_3093187 Units=km Length=0.029399999618530275 bus1=3093187.1.2.3 bus2=3093640.1.2.3 switch=n enabled=y phases=3 Linecode=3P_Code4
New Line.line_75582380_3093049_3093253 Units=km Length=0.017700000762939455 bus1=3093253.1.2.3 bus2=3093049.1.2.3 switch=n enabled=y phases=3 Linecode=3P_Code0
New Line.line_75582383_3093294_3093101 Units=km Length=0.07759999847412109 bus1=3093101.2.3 bus2=3093294.2.3 switch=n enabled=y phases=2 Linecode=2P_Code1
New Line.line_75582394_3093297_3093047 Units=km Length=0.014300000190734864 bus1=3093047.1.2.3 bus2=3093297.1.2.3 switch=n enabled=y phases=3 Linecode=3P_Code0
New Line.line_75582453_3093685_3093294 Units=km Length=0.021700000762939455 bus1=3093294.2.3 bus2=3093685.2.3 switch=n enabled=y phases=2 Linecode=2P_Code16
New Line.line_75582456_3091345_3093297 Units=km Length=0.019399999618530273 bus1=3093297.1.2.3 bus2=3091345.1.2.3 switch=n enabled=y phases=3 Linecode=3P_Code0
New Line.line_75582459_3093297_3093300 Units=km Length=0.016399999618530274 bus1=3093300.2.3 bus2=3093297.2.3 switch=n enabled=y phases=2 Linecode=2P_Code1
New Line.line_75582460_3093687_3093187 Units=km Length=0.026600000381469726 bus1=3093187.1.2.3 bus2=3093687.1.2.3 switch=n enabled=y phases=3 Linecode=3P_Code4
New Line.line_75582493_3093045_3093326 Units=km Length=0.047 bus1=3093326.1.2.3 bus2=3093045.1.2.3 switch=n enabled=y phases=3 Linecode=3P_Code0
New Line.line_75582494_3093187_3093050 Units=km Length=0.0335 bus1=3093050.2 bus2=3093187.2 switch=n enabled=y phases=1 Linecode=1P_Code7
New Line.line_75582499_3093362_3093330 Units=km Length=0.019299999237060547 bus1=3093330.1.2.3 bus2=3093362.1.2.3 switch=n enabled=y phases=3 Linecode=3P_Code3
New Line.line_75582500_3093187_3093049 Units=km Length=0.023200000762939453 bus1=3093049.1.2.3 bus2=3093187.1.2.3 switch=n enabled=y phases=3 Linecode=3P_Code0
New Line.line_75582508_3093392_3093123 Units=km Length=0.0195 bus1=3093123.1.2.3 bus2=3093392.1.2.3 switch=n enabled=y phases=3 Linecode=3P_Code2
New Line.line_75582548_3093048_3093362 Units=km Length=0.0035 bus1=3093362.1.2.3 bus2=3093048.1.2.3 switch=n enabled=y phases=3 Linecode=3P_Code3
New Line.line_75582570_3093720_3093123 Units=km Length=0.012300000190734864 bus1=3093123.1.2.3 bus2=3093720.1.2.3 switch=n enabled=y phases=3 Linecode=3P_Code4
New Line.line_75582579_3093723_3093362 Units=km Length=0.05870000076293946 bus1=3093362.1.2.3 bus2=3093723.1.2.3 switch=n enabled=y phases=3 Linecode=3P_Code0
New Line.line_75582586_3093728_3093294 Units=km Length=0.015899999618530274 bus1=3093294.2.3 bus2=3093728.2.3 switch=n enabled=y phases=2 Linecode=2P_Code17
New Line.line_75582605_3093733_3093392 Units=km Length=0.03329999923706055 bus1=3093392.1.2.3 bus2=3093733.1.2.3 switch=n enabled=y phases=3 Linecode=3P_Code2
New Line.line_75582615_3093736_3093156 Units=km Length=0.019100000381469726 bus1=3093156.1 bus2=3093736.1 switch=n enabled=y phases=1 Linecode=1P_Code7
New Line.line_75582632_3091345_3093144 Units=km Length=0.09059999847412109 bus1=3093144.1.2.3 bus2=3091345.1.2.3 switch=n enabled=y phases=3 Linecode=3P_Code2
New Line.line_75582635_3093157_3093187 Units=km Length=0.0085 bus1=3093187.1.2.3 bus2=3093157.1.2.3 switch=n enabled=y phases=3 Linecode=3P_Code0
New Line.line_75582664_3093326_3091079 Units=km Length=0.0375 bus1=3091079.1.2.3 bus2=3093326.1.2.3 switch=n enabled=y phases=3 Linecode=3P_Code0
New Line.line_75582700_3093566_3093253 Units=km Length=0.0115 bus1=3093253.1.2.3 bus2=3093566.1.2.3 switch=n enabled=y phases=3 Linecode=3P_Code2
New Line.line_75582728_3093767_3093326 Units=km Length=0.0066999998092651366 bus1=3093326.1.2.3 bus2=3093767.1.2.3 switch=n enabled=y phases=3 Linecode=3P_Code5
New Line.line_75582734_3093770_3093145 Units=km Length=0.011800000190734863 bus1=3093145.1.2 bus2=3093770.1.2 switch=n enabled=y phases=2 Linecode=2P_Code10
New Line.line_75582750_3093778_3093476 Units=km Length=0.017299999237060548 bus1=3093476.1.2.3 bus2=3093778.1.2.3 switch=n enabled=y phases=3 Linecode=3P_Code2
New Line.line_75582780_3093297_3093045 Units=km Length=0.033 bus1=3093045.1.2.3 bus2=3093297.1.2.3 switch=n enabled=y phases=3 Linecode=3P_Code0
New Line.line_75582784_3093623_3093046 Units=km Length=0.03759999847412109 bus1=3093046.1.2 bus2=3093623.1.2 switch=n enabled=y phases=2 Linecode=2P_Code10
New Line.line_75582801_3093792_3093476 Units=km Length=0.01779999923706055 bus1=3093476.1.2.3 bus2=3093792.1.2.3 switch=n enabled=y phases=3 Linecode=3P_Code2
New Line.line_75582803_3093794_3093157 Units=km Length=0.016299999237060547 bus1=3093157.1.2.3 bus2=3093794.1.2.3 switch=n enabled=y phases=3 Linecode=3P_Code2
New Line.line_75582829_3093523_3093520 Units=km Length=0.018799999237060546 bus1=3093520.1.2.3 bus2=3093523.1.2.3 switch=n enabled=y phases=3 Linecode=3P_Code2
New Line.line_75582830_3093803_3093521 Units=km Length=0.044 bus1=3093521.1.3 bus2=3093803.1.3 switch=n enabled=y phases=2 Linecode=2P_Code19
New Line.line_75582831_3093521_3093522 Units=km Length=0.06519999694824219 bus1=3093522.1.2 bus2=3093521.1.2 switch=n enabled=y phases=2 Linecode=2P_Code19
New Line.line_75582832_3091558_3093523 Units=km Length=0.0395 bus1=3093523.1.2.3 bus2=3091558.1.2.3 switch=n enabled=y phases=3 Linecode=3P_Code2
New Line.line_75582833_3093521_3093523 Units=km Length=0.020799999237060548 bus1=3093523.1.2.3 bus2=3093521.1.2.3 switch=n enabled=y phases=3 Linecode=3P_Code2
New Line.line_75582876_3093522_3093552 Units=km Length=0.0165 bus1=3093552.1.2 bus2=3093522.1.2 switch=n enabled=y phases=2 Linecode=2P_Code19
New Line.line_75582897_3093829_3093566 Units=km Length=0.021 bus1=3093566.1.2.3 bus2=3093829.1.2.3 switch=n enabled=y phases=3 Linecode=3P_Code2
New Line.line_75582948_3091637_3090922 Units=km Length=0.03570000076293946 bus1=3090922.1.2.3 bus2=3091637.1.2.3 switch=n enabled=y phases=3 Linecode=3P_Code4
New Line.line_75583029_3091390_3090999 Units=km Length=0.045900001525878906 bus1=3090999.1.2.3 bus2=3091390.1.2.3 switch=n enabled=y phases=3 Linecode=3P_OH_Code18
New Line.line_75583040_3091260_3091009 Units=km Length=0.045400001525878905 bus1=3091009.1.2.3 bus2=3091260.1.2.3 switch=n enabled=y phases=3 Linecode=3P_OH_Code9
New Line.line_75583044_3091558_3091013 Units=km Length=0.040200000762939454 bus1=3091013.1.2.3 bus2=3091558.1.2.3 switch=n enabled=y phases=3 Linecode=3P_OH_Code18
New Line.line_75583054_3091164_3091021 Units=km Length=0.038900001525878906 bus1=3091021.2.3 bus2=3091164.2.3 switch=n enabled=y phases=2 Linecode=2P_OH_Code14
New Line.line_75583116_3091731_3091074 Units=km Length=0.012100000381469727 bus1=3091074.2.3 bus2=3091731.2.3 switch=n enabled=y phases=2 Linecode=2P_Code13
New Line.line_75583117_3091731_3091074 Units=km Length=0.012100000381469727 bus1=3091074.2.3 bus2=3091731.2.3 switch=n enabled=y phases=2 Linecode=2P_Code13
New Line.line_75583123_3091078_3090999 Units=km Length=0.0455 bus1=3090999.1.2.3 bus2=3091078.1.2.3 switch=n enabled=y phases=3 Linecode=3P_OH_Code18
New Line.line_75583124_3091312_3091078 Units=km Length=0.047200000762939454 bus1=3091078.1.2.3 bus2=3091312.1.2.3 switch=n enabled=y phases=3 Linecode=3P_OH_Code18
New Line.line_75583162_3091258_3091110 Units=km Length=0.012399999618530274 bus1=3091110.2.3 bus2=3091258.2.3 switch=n enabled=y phases=2 Linecode=2P_Code13
New Line.line_75583165_3091110_3091074 Units=km Length=0.0465 bus1=3091074.2.3 bus2=3091110.2.3 switch=n enabled=y phases=2 Linecode=2P_OH_Code14
New Line.line_75583234_3091074_3091163 Units=km Length=0.04890000152587891 bus1=3091163.2.3 bus2=3091074.2.3 switch=n enabled=y phases=2 Linecode=2P_OH_Code14
New Line.line_75583235_3091113_3091164 Units=km Length=0.039 bus1=3091164.2.3 bus2=3091113.2.3 switch=n enabled=y phases=2 Linecode=2P_OH_Code14
New Line.line_75583396_3091851_3091164 Units=km Length=0.026299999237060546 bus1=3091164.2.3 bus2=3091851.2.3 switch=n enabled=y phases=2 Linecode=2P_Code13
New Line.line_75583397_3091852_3091258 Units=km Length=0.014300000190734864 bus1=3091258.2.3 bus2=3091852.2.3 switch=n enabled=y phases=2 Linecode=2P_Code13
New Line.line_75583398_3091852_3091258 Units=km Length=0.014300000190734864 bus1=3091258.2.3 bus2=3091852.2.3 switch=n enabled=y phases=2 Linecode=2P_Code13
New Line.line_75583399_3091853_3091259 Units=km Length=0.03620000076293945 bus1=3091259.1.2.3 bus2=3091853.1.2.3 switch=n enabled=y phases=3 Linecode=3P_Code4
New Line.line_75583400_3091854_3091260 Units=km Length=0.019600000381469727 bus1=3091260.1.2.3 bus2=3091854.1.2.3 switch=n enabled=y phases=3 Linecode=3P_Code4
New Line.line_75583401_3091855_3091009 Units=km Length=0.019799999237060547 bus1=3091009.1.2.3 bus2=3091855.1.2.3 switch=n enabled=y phases=3 Linecode=3P_Code4
New Line.line_75583527_3091967_3091312 Units=km Length=0.02560000038146973 bus1=3091312.1.2.3 bus2=3091967.1.2.3 switch=n enabled=y phases=3 Linecode=3P_Code4
New Line.line_75583528_3091968_3091013 Units=km Length=0.03279999923706055 bus1=3091013.1.2.3 bus2=3091968.1.2.3 switch=n enabled=y phases=3 Linecode=3P_Code4
New Line.line_75583529_3091969_3091079 Units=km Length=0.030799999237060546 bus1=3091079.1.2.3 bus2=3091969.1.2.3 switch=n enabled=y phases=3 Linecode=3P_Code4
New Line.line_75583618_3092051_3091021 Units=km Length=0.023200000762939453 bus1=3091021.2.3 bus2=3092051.2.3 switch=n enabled=y phases=2 Linecode=2P_Code13
New Line.line_75583619_3092052_3091345 Units=km Length=0.032099998474121094 bus1=3091345.1.2.3 bus2=3092052.1.2.3 switch=n enabled=y phases=3 Linecode=3P_Code4
New Line.line_75583634_3092067_3091351 Units=km Length=0.037 bus1=3091351.1.2.3 bus2=3092067.1.2.3 switch=n enabled=y phases=3 Linecode=3P_Code4
New Line.line_75583635_3092068_3091079 Units=km Length=0.028200000762939454 bus1=3091079.1.2.3 bus2=3092068.1.2.3 switch=n enabled=y phases=3 Linecode=3P_Code4
New Line.line_75583636_3092069_3091079 Units=km Length=0.027399999618530273 bus1=3091079.1.2.3 bus2=3092069.1.2.3 switch=n enabled=y phases=3 Linecode=3P_Code4
New Line.line_75583661_3092091_3091113 Units=km Length=0.028100000381469727 bus1=3091113.2.3 bus2=3092091.2.3 switch=n enabled=y phases=2 Linecode=2P_Code13
New Line.line_75583725_3092153_3091388 Units=km Length=0.027899999618530274 bus1=3091388.1.2.3 bus2=3092153.1.2.3 switch=n enabled=y phases=3 Linecode=3P_Code4
New Line.line_75583726_3092154_3091312 Units=km Length=0.0195 bus1=3091312.1.2.3 bus2=3092154.1.2.3 switch=n enabled=y phases=3 Linecode=3P_Code4
New Line.line_75583727_3092155_3091389 Units=km Length=0.026100000381469726 bus1=3091389.1.2.3 bus2=3092155.1.2.3 switch=n enabled=y phases=3 Linecode=3P_Code4
New Line.line_75583728_3092155_3091389 Units=km Length=0.026100000381469726 bus1=3091389.1.2.3 bus2=3092155.1.2.3 switch=n enabled=y phases=3 Linecode=3P_Code4
New Line.line_75583729_3092156_3091390 Units=km Length=0.029500000000000002 bus1=3091390.1.2.3 bus2=3092156.1.2.3 switch=n enabled=y phases=3 Linecode=3P_Code4
New Line.line_75583730_3092157_3091390 Units=km Length=0.028600000381469728 bus1=3091390.1.2.3 bus2=3092157.1.2.3 switch=n enabled=y phases=3 Linecode=3P_Code4
New Line.line_75583772_3092186_3091009 Units=km Length=0.028100000381469727 bus1=3091009.1.2.3 bus2=3092186.1.2.3 switch=n enabled=y phases=3 Linecode=3P_Code4
New Line.line_75583885_3092261_3091312 Units=km Length=0.01760000038146973 bus1=3091312.1.2.3 bus2=3092261.1.2.3 switch=n enabled=y phases=3 Linecode=3P_Code4
New Line.line_75583915_3092278_3091110 Units=km Length=0.021500000000000002 bus1=3091110.2.3 bus2=3092278.2.3 switch=n enabled=y phases=2 Linecode=2P_Code13
New Line.line_75583923_3091079_3091078 Units=km Length=0.03540000152587891 bus1=3091078.1.2.3 bus2=3091079.1.2.3 switch=n enabled=y phases=3 Linecode=3P_OH_Code9
New Line.line_75583972_3092308_3091259 Units=km Length=0.032 bus1=3091259.1.2.3 bus2=3092308.1.2.3 switch=n enabled=y phases=3 Linecode=3P_Code4
New Line.line_75584100_3092355_3091013 Units=km Length=0.0335 bus1=3091013.1.2.3 bus2=3092355.1.2.3 switch=n enabled=y phases=3 Linecode=3P_Code4
New Line.line_75584150_3092401_3091021 Units=km Length=0.027100000381469726 bus1=3091021.2.3 bus2=3092401.2.3 switch=n enabled=y phases=2 Linecode=2P_Code13
New Line.line_75584174_3092424_3090999 Units=km Length=0.030600000381469726 bus1=3090999.1.2.3 bus2=3092424.1.2.3 switch=n enabled=y phases=3 Linecode=3P_Code4
New Line.line_75584205_3092445_3091351 Units=km Length=0.030299999237060546 bus1=3091351.1.2.3 bus2=3092445.1.2.3 switch=n enabled=y phases=3 Linecode=3P_Code4
New Line.line_75584224_3092455_3091259 Units=km Length=0.015800000190734863 bus1=3091259.1.2.3 bus2=3092455.1.2.3 switch=n enabled=y phases=3 Linecode=3P_Code4
New Line.line_75584242_3092468_3091078 Units=km Length=0.03659999847412109 bus1=3091078.1.2.3 bus2=3092468.1.2.3 switch=n enabled=y phases=3 Linecode=3P_Code4
New Line.line_75584303_3092506_3090999 Units=km Length=0.034099998474121096 bus1=3090999.1.2.3 bus2=3092506.1.2.3 switch=n enabled=y phases=3 Linecode=3P_Code4
New Line.line_75584334_3092528_3091389 Units=km Length=0.027700000762939454 bus1=3091389.1.2.3 bus2=3092528.1.2.3 switch=n enabled=y phases=3 Linecode=3P_Code4
New Line.line_75584339_3092532_3091345 Units=km Length=0.016299999237060547 bus1=3091345.1.2.3 bus2=3092532.1.2.3 switch=n enabled=y phases=3 Linecode=3P_Code4
New Line.line_75584365_3091389_3091558 Units=km Length=0.013000000000000001 bus1=3091558.1.2.3 bus2=3091389.1.2.3 switch=n enabled=y phases=3 Linecode=3P_Code4
New Line.line_75584379_3091388_3091560 Units=km Length=0.0175 bus1=3091560.1.2.3 bus2=3091388.1.2.3 switch=n enabled=y phases=3 Linecode=3P_Code4
New Line.line_75584404_3091259_3091260 Units=km Length=0.035500000000000004 bus1=3091260.1.2.3 bus2=3091259.1.2.3 switch=n enabled=y phases=3 Linecode=3P_OH_Code9
New Line.line_75584485_3092621_3091390 Units=km Length=0.0385 bus1=3091390.1.2.3 bus2=3092621.1.2.3 switch=n enabled=y phases=3 Linecode=3P_Code4
New Line.line_75584509_3092634_3091259 Units=km Length=0.019399999618530273 bus1=3091259.1.2.3 bus2=3092634.1.2.3 switch=n enabled=y phases=3 Linecode=3P_Code4
New Line.line_75584536_3092655_3091013 Units=km Length=0.041200000762939455 bus1=3091013.1.2.3 bus2=3092655.1.2.3 switch=n enabled=y phases=3 Linecode=3P_Code4
New Line.line_75584555_3092665_3090999 Units=km Length=0.011199999809265136 bus1=3090999.1.2.3 bus2=3092665.1.2.3 switch=n enabled=y phases=3 Linecode=3P_Code4
New Line.line_75584556_3091351_3091390 Units=km Length=0.020100000381469727 bus1=3091390.1.2.3 bus2=3091351.1.2.3 switch=n enabled=y phases=3 Linecode=3P_Code4
New Line.line_75584557_3092666_3091390 Units=km Length=0.02979999923706055 bus1=3091390.1.2.3 bus2=3092666.1.2.3 switch=n enabled=y phases=3 Linecode=3P_Code4
New Line.line_75584566_3091021_3091110 Units=km Length=0.04890000152587891 bus1=3091110.2.3 bus2=3091021.2.3 switch=n enabled=y phases=2 Linecode=2P_OH_Code14
New Line.line_75584573_3092676_3091110 Units=km Length=0.026000000000000002 bus1=3091110.2.3 bus2=3092676.2.3 switch=n enabled=y phases=2 Linecode=2P_Code13
New Line.line_75584612_3092705_3091009 Units=km Length=0.018600000381469726 bus1=3091009.1.2.3 bus2=3092705.1.2.3 switch=n enabled=y phases=3 Linecode=3P_Code4
New Line.line_75584652_3092732_3091013 Units=km Length=0.031100000381469727 bus1=3091013.1.2.3 bus2=3092732.1.2.3 switch=n enabled=y phases=3 Linecode=3P_Code4
New Line.line_75584704_3092766_3091079 Units=km Length=0.0245 bus1=3091079.1.2.3 bus2=3092766.1.2.3 switch=n enabled=y phases=3 Linecode=3P_Code4
New Line.line_75584710_3091345_3091259 Units=km Length=0.0395 bus1=3091259.1.2.3 bus2=3091345.1.2.3 switch=n enabled=y phases=3 Linecode=3P_OH_Code9
New Line.line_75584715_3092775_3090999 Units=km Length=0.04379999923706055 bus1=3090999.1.2.3 bus2=3092775.1.2.3 switch=n enabled=y phases=3 Linecode=3P_Code4
New Line.line_75584754_3092790_3091009 Units=km Length=0.03809999847412109 bus1=3091009.1.2.3 bus2=3092790.1.2.3 switch=n enabled=y phases=3 Linecode=3P_Code4
New Line.line_75584757_3092792_3091345 Units=km Length=0.0195 bus1=3091345.1.2.3 bus2=3092792.1.2.3 switch=n enabled=y phases=3 Linecode=3P_Code4
New Line.line_75584763_3092797_3091078 Units=km Length=0.039099998474121093 bus1=3091078.1.2.3 bus2=3092797.1.2.3 switch=n enabled=y phases=3 Linecode=3P_Code4
New Line.line_75584824_3092831_3091260 Units=km Length=0.021700000762939455 bus1=3091260.1.2.3 bus2=3092831.1.2.3 switch=n enabled=y phases=3 Linecode=3P_Code4
New Line.line_75584874_3092863_3091390 Units=km Length=0.04240000152587891 bus1=3091390.1.2.3 bus2=3092863.1.2.3 switch=n enabled=y phases=3 Linecode=3P_Code4
New Line.line_75584887_3092872_3091113 Units=km Length=0.023799999237060547 bus1=3091113.2.3 bus2=3092872.2.3 switch=n enabled=y phases=2 Linecode=2P_Code13
New Line.line_75584900_3091560_3091637 Units=km Length=0.026899999618530273 bus1=3091637.1.2.3 bus2=3091560.1.2.3 switch=n enabled=y phases=3 Linecode=3P_Code4
New Line.line_75584906_3090922_3091312 Units=km Length=0.012399999618530274 bus1=3091312.1.2.3 bus2=3090922.1.2.3 switch=n enabled=y phases=3 Linecode=3P_Code4
New Line.line_75584956_3091013_3091390 Units=km Length=0.0445 bus1=3091390.1.2.3 bus2=3091013.1.2.3 switch=n enabled=y phases=3 Linecode=3P_OH_Code18
New Line.line_75585074_3091021_3091678 Units=km Length=0.012100000381469727 bus1=3091678.2.3 bus2=3091021.2.3 switch=n enabled=y phases=2 Linecode=2P_Code15
New Line.line_75591809_3093838_3093046 Units=km Length=0.052079120854946565 bus1=3093046.2 bus2=3093838.2 switch=n enabled=y phases=1 Linecode=1P_Code6
New Line.line_75591810_3093839_3093770 Units=km Length=0.015387756699775062 bus1=3093770.1 bus2=3093839.1 switch=n enabled=y phases=1 Linecode=1P_Code6
New Line.line_75591811_3093840_3092186 Units=km Length=0.023962891024697605 bus1=3092186.2 bus2=3093840.2 switch=n enabled=y phases=1 Linecode=1P_Code6
New Line.line_75591812_3093841_3093145 Units=km Length=0.02108639715542922 bus1=3093145.1 bus2=3093841.1 switch=n enabled=y phases=1 Linecode=1P_Code6
New Line.line_75591813_3093842_3093145 Units=km Length=0.02033133918321301 bus1=3093145.1.2 bus2=3093842.1.2 switch=n enabled=y phases=2 Linecode=2P_Code11
New Line.line_75591814_3093843_3093145 Units=km Length=0.02033133918321301 bus1=3093145.1 bus2=3093843.1 switch=n enabled=y phases=1 Linecode=1P_Code6
New Line.line_75591815_3093844_3093623 Units=km Length=0.028509460271596905 bus1=3093623.2 bus2=3093844.2 switch=n enabled=y phases=1 Linecode=1P_Code6
New Line.line_75591816_3093845_3093623 Units=km Length=0.023824335478952092 bus1=3093623.2 bus2=3093845.2 switch=n enabled=y phases=1 Linecode=1P_Code6
New Line.line_75591817_3093846_3093046 Units=km Length=0.021698015577391053 bus1=3093046.2 bus2=3093846.2 switch=n enabled=y phases=1 Linecode=1P_Code6
New Line.line_75591818_3093847_3092051 Units=km Length=0.052220157410272756 bus1=3092051.3 bus2=3093847.3 switch=n enabled=y phases=1 Linecode=1P_Code6
New Line.line_75591819_3093848_3092051 Units=km Length=0.052220157410272756 bus1=3092051.3 bus2=3093848.3 switch=n enabled=y phases=1 Linecode=1P_Code6
New Line.line_75591820_3093849_3093046 Units=km Length=0.02099127259125056 bus1=3093046.1 bus2=3093849.1 switch=n enabled=y phases=1 Linecode=1P_Code6
New Line.line_75591821_3093850_3093046 Units=km Length=0.02483645200077319 bus1=3093046.1 bus2=3093850.1 switch=n enabled=y phases=1 Linecode=1P_Code6
New Line.line_75591822_3093851_3093586 Units=km Length=0.018521168436876713 bus1=3093586.2 bus2=3093851.2 switch=n enabled=y phases=1 Linecode=1P_Code6
New Line.line_75591823_3093852_3091853 Units=km Length=0.024515771439213206 bus1=3091853.2 bus2=3093852.2 switch=n enabled=y phases=1 Linecode=1P_Code6
New Line.line_75591824_3093853_3093144 Units=km Length=0.020307236918059392 bus1=3093144.2 bus2=3093853.2 switch=n enabled=y phases=1 Linecode=1P_Code6
New Line.line_75591825_3093854_3093144 Units=km Length=0.020307236918059392 bus1=3093144.2 bus2=3093854.2 switch=n enabled=y phases=1 Linecode=1P_Code6
New Line.line_75591826_3093855_3091731 Units=km Length=0.014558613670655628 bus1=3091731.2 bus2=3093855.2 switch=n enabled=y phases=1 Linecode=1P_Code6
New Line.line_75591827_3093856_3091852 Units=km Length=0.011593361128434539 bus1=3091852.3 bus2=3093856.3 switch=n enabled=y phases=1 Linecode=1P_Code6
New Line.line_75591828_3093857_3091852 Units=km Length=0.011593361128434539 bus1=3091852.2 bus2=3093857.2 switch=n enabled=y phases=1 Linecode=1P_Code6
New Line.line_75591829_3093858_3091678 Units=km Length=0.019265885964057535 bus1=3091678.2 bus2=3093858.2 switch=n enabled=y phases=1 Linecode=1P_Code6
New Line.line_75591830_3093859_3092051 Units=km Length=0.010866520372151196 bus1=3092051.2 bus2=3093859.2 switch=n enabled=y phases=1 Linecode=1P_Code6
New Line.line_75591831_3093860_3093101 Units=km Length=0.024247177918183812 bus1=3093101.2 bus2=3093860.2 switch=n enabled=y phases=1 Linecode=1P_Code6
New Line.line_75591832_3093861_3093294 Units=km Length=0.046371625777132115 bus1=3093294.2 bus2=3093861.2 switch=n enabled=y phases=1 Linecode=1P_Code6
New Line.line_75591833_3093862_3092051 Units=km Length=0.03473834457765892 bus1=3092051.3 bus2=3093862.3 switch=n enabled=y phases=1 Linecode=1P_Code6
New Line.line_75591834_3093863_3093101 Units=km Length=0.030692794268705356 bus1=3093101.2 bus2=3093863.2 switch=n enabled=y phases=1 Linecode=1P_Code6
New Line.line_75591835_3093864_3093728 Units=km Length=0.029617571527996035 bus1=3093728.2 bus2=3093864.2 switch=n enabled=y phases=1 Linecode=1P_Code6
New Line.line_75591836_3093865_3093294 Units=km Length=0.021057476801745363 bus1=3093294.3 bus2=3093865.3 switch=n enabled=y phases=1 Linecode=1P_Code6
New Line.line_75591837_3093866_3093294 Units=km Length=0.021057476801745363 bus1=3093294.3 bus2=3093866.3 switch=n enabled=y phases=1 Linecode=1P_Code6
New Line.line_75591838_3093867_3093294 Units=km Length=0.021268620224499133 bus1=3093294.2 bus2=3093867.2 switch=n enabled=y phases=1 Linecode=1P_Code6
New Line.line_75591839_3093868_3093294 Units=km Length=0.021268620224499133 bus1=3093294.2 bus2=3093868.2 switch=n enabled=y phases=1 Linecode=1P_Code6
New Line.line_75591840_3093869_3093294 Units=km Length=0.0344274781134151 bus1=3093294.3 bus2=3093869.3 switch=n enabled=y phases=1 Linecode=1P_Code6
New Line.line_75591841_3093870_3093685 Units=km Length=0.030466180101900744 bus1=3093685.3 bus2=3093870.3 switch=n enabled=y phases=1 Linecode=1P_Code6
New Line.line_75591842_3093871_3093685 Units=km Length=0.03358493963042626 bus1=3093685.3 bus2=3093871.3 switch=n enabled=y phases=1 Linecode=1P_Code6
New Line.line_75591843_3093872_3093685 Units=km Length=0.03358493963042626 bus1=3093685.2 bus2=3093872.2 switch=n enabled=y phases=1 Linecode=1P_Code6
New Line.line_75591844_3093873_3093685 Units=km Length=0.044362953610254684 bus1=3093685.3 bus2=3093873.3 switch=n enabled=y phases=1 Linecode=1P_Code6
New Line.line_75591845_3093874_3093728 Units=km Length=0.03587054507900331 bus1=3093728.3 bus2=3093874.3 switch=n enabled=y phases=1 Linecode=1P_Code6
New Line.line_75591846_3093875_3093728 Units=km Length=0.03587054507900331 bus1=3093728.3 bus2=3093875.3 switch=n enabled=y phases=1 Linecode=1P_Code6
New Line.line_75591847_3093876_3093728 Units=km Length=0.03194401792582347 bus1=3093728.3 bus2=3093876.3 switch=n enabled=y phases=1 Linecode=1P_Code6
New Line.line_75591848_3093877_3093608 Units=km Length=0.024475384251457868 bus1=3093608.2 bus2=3093877.2 switch=n enabled=y phases=1 Linecode=1P_Code6
New Line.line_75591849_3093878_3093608 Units=km Length=0.02356392945253174 bus1=3093608.3 bus2=3093878.3 switch=n enabled=y phases=1 Linecode=1P_Code6
New Line.line_75591850_3093879_3093608 Units=km Length=0.02356392945253174 bus1=3093608.3 bus2=3093879.3 switch=n enabled=y phases=1 Linecode=1P_Code6
New Line.line_75591851_3093880_3092091 Units=km Length=0.02185509450885866 bus1=3092091.2 bus2=3093880.2 switch=n enabled=y phases=1 Linecode=1P_Code6
New Line.line_75591906_3093935_3092872 Units=km Length=0.016896338449038182 bus1=3092872.2 bus2=3093935.2 switch=n enabled=y phases=1 Linecode=1P_Code6
New Line.line_75591907_3093936_3092676 Units=km Length=0.017598895448388528 bus1=3092676.2 bus2=3093936.2 switch=n enabled=y phases=1 Linecode=1P_Code6
New Line.line_75591908_3093937_3093733 Units=km Length=0.020055540387596757 bus1=3093733.2 bus2=3093937.2 switch=n enabled=y phases=1 Linecode=1P_Code6
New Line.line_75591909_3093938_3093733 Units=km Length=0.020055540387596757 bus1=3093733.3 bus2=3093938.3 switch=n enabled=y phases=1 Linecode=1P_Code6
New Line.line_75591910_3093939_3093720 Units=km Length=0.01388126370322428 bus1=3093720.3 bus2=3093939.3 switch=n enabled=y phases=1 Linecode=1P_Code6
New Line.line_75591911_3093940_3093720 Units=km Length=0.009289086607461264 bus1=3093720.1 bus2=3093940.1 switch=n enabled=y phases=1 Linecode=1P_Code6
New Line.line_75591912_3093941_3093628 Units=km Length=0.011553872641055384 bus1=3093628.2 bus2=3093941.2 switch=n enabled=y phases=1 Linecode=1P_Code6
New Line.line_75591913_3093942_3093736 Units=km Length=0.013629036878577073 bus1=3093736.1 bus2=3093942.1 switch=n enabled=y phases=1 Linecode=1P_Code6
New Line.line_75591914_3093943_3093640 Units=km Length=0.019837736892447465 bus1=3093640.1 bus2=3093943.1 switch=n enabled=y phases=1 Linecode=1P_Code6
New Line.line_75591915_3093944_3093587 Units=km Length=0.014310490950747176 bus1=3093587.2 bus2=3093944.2 switch=n enabled=y phases=1 Linecode=1P_Code6
New Line.line_75591916_3093945_3093587 Units=km Length=0.013484219267612686 bus1=3093587.2 bus2=3093945.2 switch=n enabled=y phases=1 Linecode=1P_Code6
New Line.line_75591917_3093946_3093050 Units=km Length=0.012015112827171597 bus1=3093050.2 bus2=3093946.2 switch=n enabled=y phases=1 Linecode=1P_Code6
New Line.line_75591918_3093947_3093051 Units=km Length=0.018852026422528444 bus1=3093051.1 bus2=3093947.1 switch=n enabled=y phases=1 Linecode=1P_Code6
New Line.line_75591919_3093948_3093792 Units=km Length=0.02572512866868285 bus1=3093792.1 bus2=3093948.1 switch=n enabled=y phases=1 Linecode=1P_Code6
New Line.line_75591920_3093949_3093792 Units=km Length=0.02439889433934308 bus1=3093792.1 bus2=3093949.1 switch=n enabled=y phases=1 Linecode=1P_Code6
New Line.line_75592155_3094184_3093778 Units=km Length=0.0340720349589732 bus1=3093778.3 bus2=3094184.3 switch=n enabled=y phases=1 Linecode=1P_Code6
New Line.line_75592156_3094185_3093778 Units=km Length=0.019556322513775964 bus1=3093778.3 bus2=3094185.3 switch=n enabled=y phases=1 Linecode=1P_Code6
New Line.line_75592157_3094186_3093778 Units=km Length=0.02336625961184001 bus1=3093778.2 bus2=3094186.2 switch=n enabled=y phases=1 Linecode=1P_Code6
New Line.line_75592158_3094187_3093778 Units=km Length=0.03668054404211691 bus1=3093778.1 bus2=3094187.1 switch=n enabled=y phases=1 Linecode=1P_Code6
New Line.line_75592159_3094188_3093794 Units=km Length=0.026942644325574416 bus1=3093794.1 bus2=3094188.1 switch=n enabled=y phases=1 Linecode=1P_Code6
New Line.line_75592160_3094189_3093794 Units=km Length=0.01647206936799282 bus1=3093794.3 bus2=3094189.3 switch=n enabled=y phases=1 Linecode=1P_Code6
New Line.line_75592161_3094190_3093794 Units=km Length=0.025054561705373485 bus1=3093794.2 bus2=3094190.2 switch=n enabled=y phases=1 Linecode=1P_Code6
New Line.line_75592162_3094191_3093723 Units=km Length=0.008229455024624672 bus1=3093723.1 bus2=3094191.1 switch=n enabled=y phases=1 Linecode=1P_Code6
New Line.line_75592163_3094192_3091163 Units=km Length=0.020487126201802416 bus1=3091163.2 bus2=3094192.2 switch=n enabled=y phases=1 Linecode=1P_Code6
New Line.line_75592164_3094193_3093585 Units=km Length=0.015467970074968142 bus1=3093585.2 bus2=3094193.2 switch=n enabled=y phases=1 Linecode=1P_Code6
New Line.line_75592165_3094194_3092261 Units=km Length=0.014262177262363979 bus1=3092261.2 bus2=3094194.2 switch=n enabled=y phases=1 Linecode=1P_Code6
New Line.line_75592166_3094195_3092424 Units=km Length=0.006904200822569434 bus1=3092424.1 bus2=3094195.1 switch=n enabled=y phases=1 Linecode=1P_Code6
New Line.line_75592167_3094196_3092155 Units=km Length=0.007756366497482938 bus1=3092155.1 bus2=3094196.1 switch=n enabled=y phases=1 Linecode=1P_Code6
New Line.line_75592168_3094197_3092155 Units=km Length=0.010587433647881938 bus1=3092155.3 bus2=3094197.3 switch=n enabled=y phases=1 Linecode=1P_Code6
New Line.line_75592169_3094198_3093520 Units=km Length=0.018705565916153206 bus1=3093520.3 bus2=3094198.3 switch=n enabled=y phases=1 Linecode=1P_Code6
New Line.line_75592170_3094199_3093521 Units=km Length=0.025845933412989925 bus1=3093521.2 bus2=3094199.2 switch=n enabled=y phases=1 Linecode=1P_Code6
New Line.line_75592171_3094200_3093522 Units=km Length=0.01399775960645226 bus1=3093522.2 bus2=3094200.2 switch=n enabled=y phases=1 Linecode=1P_Code6
New Line.line_75592172_3094201_3093521 Units=km Length=0.020193090154995492 bus1=3093521.1 bus2=3094201.1 switch=n enabled=y phases=1 Linecode=1P_Code6
New Line.line_75592173_3094202_3093521 Units=km Length=0.020193090154995492 bus1=3093521.1 bus2=3094202.1 switch=n enabled=y phases=1 Linecode=1P_Code6
New Line.line_75592174_3094203_3093803 Units=km Length=0.016853931648461832 bus1=3093803.3 bus2=3094203.3 switch=n enabled=y phases=1 Linecode=1P_Code6
New Line.line_75592175_3094204_3093803 Units=km Length=0.01801098359342915 bus1=3093803.3 bus2=3094204.3 switch=n enabled=y phases=1 Linecode=1P_Code6
New Line.line_75592176_3094205_3093523 Units=km Length=0.021560395712061024 bus1=3093523.1 bus2=3094205.1 switch=n enabled=y phases=1 Linecode=1P_Code6
New Line.line_75592177_3094206_3091558 Units=km Length=0.01865501543814577 bus1=3091558.2 bus2=3094206.2 switch=n enabled=y phases=1 Linecode=1P_Code6
New Line.line_75592178_3094207_3091558 Units=km Length=0.014634727090131208 bus1=3091558.1 bus2=3094207.1 switch=n enabled=y phases=1 Linecode=1P_Code6
New Line.line_75592179_3094208_3092655 Units=km Length=0.011818692186817917 bus1=3092655.1 bus2=3094208.1 switch=n enabled=y phases=1 Linecode=1P_Code6
New Line.line_75592180_3094209_3091390 Units=km Length=0.014670031765847908 bus1=3091390.1 bus2=3094209.1 switch=n enabled=y phases=1 Linecode=1P_Code6
New Line.line_75592181_3094210_3092732 Units=km Length=0.029516612610110952 bus1=3092732.1 bus2=3094210.1 switch=n enabled=y phases=1 Linecode=1P_Code6
New Line.line_75592258_3094287_3092052 Units=km Length=0.01600569424505646 bus1=3092052.3 bus2=3094287.3 switch=n enabled=y phases=1 Linecode=1P_Code6
New Line.line_75592272_3094301_3092155 Units=km Length=0.019408278549869852 bus1=3092155.1 bus2=3094301.1 switch=n enabled=y phases=1 Linecode=1P_Code6
New Line.line_75592289_3094318_3093522 Units=km Length=0.029902194183693772 bus1=3093522.2 bus2=3094318.2 switch=n enabled=y phases=1 Linecode=1P_Code6
New Line.line_75592300_3094329_3091110 Units=km Length=0.017744284150472484 bus1=3091110.3 bus2=3094329.3 switch=n enabled=y phases=1 Linecode=1P_Code6
New Line.line_75592301_3094330_3091678 Units=km Length=0.026823773970247693 bus1=3091678.3 bus2=3094330.3 switch=n enabled=y phases=1 Linecode=1P_Code6
New Line.line_75592317_3094346_3093156 Units=km Length=0.009667725960814734 bus1=3093156.3 bus2=3094346.3 switch=n enabled=y phases=1 Linecode=1P_Code6
New Line.line_75592319_3094348_3093049 Units=km Length=0.015291757911034204 bus1=3093049.3 bus2=3094348.3 switch=n enabled=y phases=1 Linecode=1P_Code6
New Line.line_75592325_3094354_3093685 Units=km Length=0.06278592984085142 bus1=3093685.3 bus2=3094354.3 switch=n enabled=y phases=1 Linecode=1P_Code6
New Line.line_75592331_3094360_3091390 Units=km Length=0.014670031765847908 bus1=3091390.1 bus2=3094360.1 switch=n enabled=y phases=1 Linecode=1P_Code6
New Line.line_75592404_3094433_3092261 Units=km Length=0.029952049950924205 bus1=3092261.3 bus2=3094433.3 switch=n enabled=y phases=1 Linecode=1P_Code6
New Line.line_75592420_3094449_3093608 Units=km Length=0.02356392945253174 bus1=3093608.3 bus2=3094449.3 switch=n enabled=y phases=1 Linecode=1P_Code6
New Line.line_75592421_3094450_3092051 Units=km Length=0.010866520372151196 bus1=3092051.3 bus2=3094450.3 switch=n enabled=y phases=1 Linecode=1P_Code6
New Line.line_75592441_3094470_3093046 Units=km Length=0.022245040818136413 bus1=3093046.2 bus2=3094470.2 switch=n enabled=y phases=1 Linecode=1P_Code6
New Line.line_75592456_3094485_3092186 Units=km Length=0.023962891024697605 bus1=3092186.3 bus2=3094485.3 switch=n enabled=y phases=1 Linecode=1P_Code6
New Line.line_75592500_3094529_3091853 Units=km Length=0.024515771439213206 bus1=3091853.2 bus2=3094529.2 switch=n enabled=y phases=1 Linecode=1P_Code6
New Line.line_75592535_3094564_3093829 Units=km Length=0.023688584724540204 bus1=3093829.1 bus2=3094564.1 switch=n enabled=y phases=1 Linecode=1P_Code6
New Line.line_75592538_3094567_3093829 Units=km Length=0.023688584724540204 bus1=3093829.2 bus2=3094567.2 switch=n enabled=y phases=1 Linecode=1P_Code6
New Line.line_75592548_3094577_3092424 Units=km Length=0.006904200822569434 bus1=3092424.1 bus2=3094577.1 switch=n enabled=y phases=1 Linecode=1P_Code6
New Line.line_75592550_3094579_3092676 Units=km Length=0.017598895448388528 bus1=3092676.2 bus2=3094579.2 switch=n enabled=y phases=1 Linecode=1P_Code6
New Line.line_75592553_3094582_3093829 Units=km Length=0.023688584724540204 bus1=3093829.3 bus2=3094582.3 switch=n enabled=y phases=1 Linecode=1P_Code6
